<?xml version="1.0" encoding="UTF-8"?>

<!-- generated on 04/17/20 11:24:35 by Eclipse SUMO netedit Version 1.3.1
<configuration xmlns:xsi="http://www.w3.org/2001/XMLSchema-instance" xsi:noNamespaceSchemaLocation="http://sumo.dlr.de/xsd/netconvertConfiguration.xsd">

    <input>
        <sumo-net-file value="E:\urban4.net.xml"/>
    </input>

    <output>
        <output-file value="E:\urban5.net.xml"/>
    </output>

    <processing>
        <geometry.max-grade.fix value="false"/>
        <offset.disable-normalization value="true"/>
        <opposites.guess.fix-lengths value="true"/>
        <lefthand value="true"/>
    </processing>

    <junctions>
        <no-turnarounds value="true"/>
        <junctions.corner-detail value="5"/>
        <junctions.limit-turn-speed value="5.5"/>
        <rectangular-lane-cut value="false"/>
    </junctions>

    <pedestrian>
        <walkingareas value="false"/>
    </pedestrian>

</configuration>
-->

<net version="1.3" junctionCornerDetail="5" lefthand="true" limitTurnSpeed="5.50" xmlns:xsi="http://www.w3.org/2001/XMLSchema-instance" xsi:noNamespaceSchemaLocation="http://sumo.dlr.de/xsd/net_file.xsd">

    <location netOffset="0.00,0.00" convBoundary="-425.00,-699.50,425.00,699.50" origBoundary="-10000000000.00,-10000000000.00,10000000000.00,10000000000.00" projParameter="!"/>

    <edge id=":100_0" function="internal">
        <lane id=":100_0_0" index="0" disallow="pedestrian" speed="6.87" length="10.08" width="3.50" shape="-380.25,638.00 -380.64,640.73 -381.81,642.69 -383.77,643.86 -386.50,644.25"/>
    </edge>
    <edge id=":100_1" function="internal">
        <lane id=":100_1_0" index="0" disallow="pedestrian" speed="13.89" length="23.00" width="3.50" shape="-380.25,638.00 -380.25,661.00"/>
        <lane id=":100_1_1" index="1" disallow="pedestrian" speed="13.89" length="23.00" width="3.50" shape="-376.75,638.00 -376.75,661.00"/>
    </edge>
    <edge id=":100_3" function="internal">
        <lane id=":100_3_0" index="0" disallow="pedestrian" speed="9.73" length="7.65" width="3.50" shape="-376.75,638.00 -375.92,643.80 -375.00,645.33"/>
    </edge>
    <edge id=":100_16" function="internal">
        <lane id=":100_16_0" index="0" disallow="pedestrian" speed="9.73" length="13.72" width="3.50" shape="-375.00,645.33 -373.44,647.94 -369.30,650.42 -363.50,651.25"/>
    </edge>
    <edge id=":100_4" function="internal">
        <lane id=":100_4_0" index="0" disallow="pedestrian" speed="6.87" length="10.08" width="3.50" shape="-363.50,644.25 -366.23,643.86 -368.19,642.69 -369.36,640.73 -369.75,638.00"/>
    </edge>
    <edge id=":100_5" function="internal">
        <lane id=":100_5_0" index="0" disallow="pedestrian" speed="13.89" length="23.00" width="3.50" shape="-363.50,644.25 -386.50,644.25"/>
        <lane id=":100_5_1" index="1" disallow="pedestrian" speed="13.89" length="23.00" width="3.50" shape="-363.50,647.75 -386.50,647.75"/>
    </edge>
    <edge id=":100_7" function="internal">
        <lane id=":100_7_0" index="0" disallow="pedestrian" speed="9.73" length="7.65" width="3.50" shape="-363.50,647.75 -369.30,648.58 -370.83,649.50"/>
    </edge>
    <edge id=":100_17" function="internal">
        <lane id=":100_17_0" index="0" disallow="pedestrian" speed="9.73" length="13.72" width="3.50" shape="-370.83,649.50 -373.44,651.06 -375.92,655.20 -376.75,661.00"/>
    </edge>
    <edge id=":100_8" function="internal">
        <lane id=":100_8_0" index="0" disallow="pedestrian" speed="6.87" length="10.08" width="3.50" shape="-369.75,661.00 -369.36,658.27 -368.19,656.31 -366.23,655.14 -363.50,654.75"/>
    </edge>
    <edge id=":100_9" function="internal">
        <lane id=":100_9_0" index="0" disallow="pedestrian" speed="13.89" length="23.00" width="3.50" shape="-369.75,661.00 -369.75,638.00"/>
        <lane id=":100_9_1" index="1" disallow="pedestrian" speed="13.89" length="23.00" width="3.50" shape="-373.25,661.00 -373.25,638.00"/>
    </edge>
    <edge id=":100_11" function="internal">
        <lane id=":100_11_0" index="0" disallow="pedestrian" speed="9.73" length="7.65" width="3.50" shape="-373.25,661.00 -374.08,655.20 -375.00,653.67"/>
    </edge>
    <edge id=":100_18" function="internal">
        <lane id=":100_18_0" index="0" disallow="pedestrian" speed="9.73" length="13.72" width="3.50" shape="-375.00,653.67 -376.56,651.06 -380.70,648.58 -386.50,647.75"/>
    </edge>
    <edge id=":100_12" function="internal">
        <lane id=":100_12_0" index="0" disallow="pedestrian" speed="6.87" length="10.08" width="3.50" shape="-386.50,654.75 -383.77,655.14 -381.81,656.31 -380.64,658.27 -380.25,661.00"/>
    </edge>
    <edge id=":100_13" function="internal">
        <lane id=":100_13_0" index="0" disallow="pedestrian" speed="13.89" length="23.00" width="3.50" shape="-386.50,654.75 -363.50,654.75"/>
        <lane id=":100_13_1" index="1" disallow="pedestrian" speed="13.89" length="23.00" width="3.50" shape="-386.50,651.25 -363.50,651.25"/>
    </edge>
    <edge id=":100_15" function="internal">
        <lane id=":100_15_0" index="0" disallow="pedestrian" speed="9.73" length="7.65" width="3.50" shape="-386.50,651.25 -380.70,650.42 -379.17,649.50"/>
    </edge>
    <edge id=":100_19" function="internal">
        <lane id=":100_19_0" index="0" disallow="pedestrian" speed="9.73" length="13.72" width="3.50" shape="-379.17,649.50 -376.56,647.94 -374.08,643.80 -373.25,638.00"/>
    </edge>
    <edge id=":110_0" function="internal">
        <lane id=":110_0_0" index="0" disallow="pedestrian" speed="6.87" length="10.08" width="3.50" shape="-130.25,638.00 -130.64,640.73 -131.81,642.69 -133.77,643.86 -136.50,644.25"/>
    </edge>
    <edge id=":110_1" function="internal">
        <lane id=":110_1_0" index="0" disallow="pedestrian" speed="13.89" length="23.00" width="3.50" shape="-130.25,638.00 -130.25,661.00"/>
        <lane id=":110_1_1" index="1" disallow="pedestrian" speed="13.89" length="23.00" width="3.50" shape="-126.75,638.00 -126.75,661.00"/>
    </edge>
    <edge id=":110_3" function="internal">
        <lane id=":110_3_0" index="0" disallow="pedestrian" speed="9.73" length="7.65" width="3.50" shape="-126.75,638.00 -125.92,643.80 -125.00,645.33"/>
    </edge>
    <edge id=":110_16" function="internal">
        <lane id=":110_16_0" index="0" disallow="pedestrian" speed="9.73" length="13.72" width="3.50" shape="-125.00,645.33 -123.44,647.94 -119.30,650.42 -113.50,651.25"/>
    </edge>
    <edge id=":110_4" function="internal">
        <lane id=":110_4_0" index="0" disallow="pedestrian" speed="6.87" length="10.08" width="3.50" shape="-113.50,644.25 -116.23,643.86 -118.19,642.69 -119.36,640.73 -119.75,638.00"/>
    </edge>
    <edge id=":110_5" function="internal">
        <lane id=":110_5_0" index="0" disallow="pedestrian" speed="13.89" length="23.00" width="3.50" shape="-113.50,644.25 -136.50,644.25"/>
        <lane id=":110_5_1" index="1" disallow="pedestrian" speed="13.89" length="23.00" width="3.50" shape="-113.50,647.75 -136.50,647.75"/>
    </edge>
    <edge id=":110_7" function="internal">
        <lane id=":110_7_0" index="0" disallow="pedestrian" speed="9.73" length="7.65" width="3.50" shape="-113.50,647.75 -119.30,648.58 -120.83,649.50"/>
    </edge>
    <edge id=":110_17" function="internal">
        <lane id=":110_17_0" index="0" disallow="pedestrian" speed="9.73" length="13.72" width="3.50" shape="-120.83,649.50 -123.44,651.06 -125.92,655.20 -126.75,661.00"/>
    </edge>
    <edge id=":110_8" function="internal">
        <lane id=":110_8_0" index="0" disallow="pedestrian" speed="6.87" length="10.08" width="3.50" shape="-119.75,661.00 -119.36,658.27 -118.19,656.31 -116.23,655.14 -113.50,654.75"/>
    </edge>
    <edge id=":110_9" function="internal">
        <lane id=":110_9_0" index="0" disallow="pedestrian" speed="13.89" length="23.00" width="3.50" shape="-119.75,661.00 -119.75,638.00"/>
        <lane id=":110_9_1" index="1" disallow="pedestrian" speed="13.89" length="23.00" width="3.50" shape="-123.25,661.00 -123.25,638.00"/>
    </edge>
    <edge id=":110_11" function="internal">
        <lane id=":110_11_0" index="0" disallow="pedestrian" speed="9.73" length="7.65" width="3.50" shape="-123.25,661.00 -124.08,655.20 -125.00,653.67"/>
    </edge>
    <edge id=":110_18" function="internal">
        <lane id=":110_18_0" index="0" disallow="pedestrian" speed="9.73" length="13.72" width="3.50" shape="-125.00,653.67 -126.56,651.06 -130.70,648.58 -136.50,647.75"/>
    </edge>
    <edge id=":110_12" function="internal">
        <lane id=":110_12_0" index="0" disallow="pedestrian" speed="6.87" length="10.08" width="3.50" shape="-136.50,654.75 -133.77,655.14 -131.81,656.31 -130.64,658.27 -130.25,661.00"/>
    </edge>
    <edge id=":110_13" function="internal">
        <lane id=":110_13_0" index="0" disallow="pedestrian" speed="13.89" length="23.00" width="3.50" shape="-136.50,654.75 -113.50,654.75"/>
        <lane id=":110_13_1" index="1" disallow="pedestrian" speed="13.89" length="23.00" width="3.50" shape="-136.50,651.25 -113.50,651.25"/>
    </edge>
    <edge id=":110_15" function="internal">
        <lane id=":110_15_0" index="0" disallow="pedestrian" speed="9.73" length="7.65" width="3.50" shape="-136.50,651.25 -130.70,650.42 -129.17,649.50"/>
    </edge>
    <edge id=":110_19" function="internal">
        <lane id=":110_19_0" index="0" disallow="pedestrian" speed="9.73" length="13.72" width="3.50" shape="-129.17,649.50 -126.56,647.94 -124.08,643.80 -123.25,638.00"/>
    </edge>
    <edge id=":120_0" function="internal">
        <lane id=":120_0_0" index="0" disallow="pedestrian" speed="6.87" length="10.08" width="3.50" shape="119.75,638.00 119.36,640.73 118.19,642.69 116.23,643.86 113.50,644.25"/>
    </edge>
    <edge id=":120_1" function="internal">
        <lane id=":120_1_0" index="0" disallow="pedestrian" speed="13.89" length="23.00" width="3.50" shape="119.75,638.00 119.75,661.00"/>
        <lane id=":120_1_1" index="1" disallow="pedestrian" speed="13.89" length="23.00" width="3.50" shape="123.25,638.00 123.25,661.00"/>
    </edge>
    <edge id=":120_3" function="internal">
        <lane id=":120_3_0" index="0" disallow="pedestrian" speed="9.73" length="7.65" width="3.50" shape="123.25,638.00 124.08,643.80 125.00,645.33"/>
    </edge>
    <edge id=":120_16" function="internal">
        <lane id=":120_16_0" index="0" disallow="pedestrian" speed="9.73" length="13.72" width="3.50" shape="125.00,645.33 126.56,647.94 130.70,650.42 136.50,651.25"/>
    </edge>
    <edge id=":120_4" function="internal">
        <lane id=":120_4_0" index="0" disallow="pedestrian" speed="6.87" length="10.08" width="3.50" shape="136.50,644.25 133.77,643.86 131.81,642.69 130.64,640.73 130.25,638.00"/>
    </edge>
    <edge id=":120_5" function="internal">
        <lane id=":120_5_0" index="0" disallow="pedestrian" speed="13.89" length="23.00" width="3.50" shape="136.50,644.25 113.50,644.25"/>
        <lane id=":120_5_1" index="1" disallow="pedestrian" speed="13.89" length="23.00" width="3.50" shape="136.50,647.75 113.50,647.75"/>
    </edge>
    <edge id=":120_7" function="internal">
        <lane id=":120_7_0" index="0" disallow="pedestrian" speed="9.73" length="7.65" width="3.50" shape="136.50,647.75 130.70,648.58 129.17,649.50"/>
    </edge>
    <edge id=":120_17" function="internal">
        <lane id=":120_17_0" index="0" disallow="pedestrian" speed="9.73" length="13.72" width="3.50" shape="129.17,649.50 126.56,651.06 124.08,655.20 123.25,661.00"/>
    </edge>
    <edge id=":120_8" function="internal">
        <lane id=":120_8_0" index="0" disallow="pedestrian" speed="6.87" length="10.08" width="3.50" shape="130.25,661.00 130.64,658.27 131.81,656.31 133.77,655.14 136.50,654.75"/>
    </edge>
    <edge id=":120_9" function="internal">
        <lane id=":120_9_0" index="0" disallow="pedestrian" speed="13.89" length="23.00" width="3.50" shape="130.25,661.00 130.25,638.00"/>
        <lane id=":120_9_1" index="1" disallow="pedestrian" speed="13.89" length="23.00" width="3.50" shape="126.75,661.00 126.75,638.00"/>
    </edge>
    <edge id=":120_11" function="internal">
        <lane id=":120_11_0" index="0" disallow="pedestrian" speed="9.73" length="7.65" width="3.50" shape="126.75,661.00 125.92,655.20 125.00,653.67"/>
    </edge>
    <edge id=":120_18" function="internal">
        <lane id=":120_18_0" index="0" disallow="pedestrian" speed="9.73" length="13.72" width="3.50" shape="125.00,653.67 123.44,651.06 119.30,648.58 113.50,647.75"/>
    </edge>
    <edge id=":120_12" function="internal">
        <lane id=":120_12_0" index="0" disallow="pedestrian" speed="6.87" length="10.08" width="3.50" shape="113.50,654.75 116.23,655.14 118.19,656.31 119.36,658.27 119.75,661.00"/>
    </edge>
    <edge id=":120_13" function="internal">
        <lane id=":120_13_0" index="0" disallow="pedestrian" speed="13.89" length="23.00" width="3.50" shape="113.50,654.75 136.50,654.75"/>
        <lane id=":120_13_1" index="1" disallow="pedestrian" speed="13.89" length="23.00" width="3.50" shape="113.50,651.25 136.50,651.25"/>
    </edge>
    <edge id=":120_15" function="internal">
        <lane id=":120_15_0" index="0" disallow="pedestrian" speed="9.73" length="7.65" width="3.50" shape="113.50,651.25 119.30,650.42 120.83,649.50"/>
    </edge>
    <edge id=":120_19" function="internal">
        <lane id=":120_19_0" index="0" disallow="pedestrian" speed="9.73" length="13.72" width="3.50" shape="120.83,649.50 123.44,647.94 125.92,643.80 126.75,638.00"/>
    </edge>
    <edge id=":130_0" function="internal">
        <lane id=":130_0_0" index="0" disallow="pedestrian" speed="6.87" length="10.08" width="3.50" shape="369.75,638.00 369.36,640.73 368.19,642.69 366.23,643.86 363.50,644.25"/>
    </edge>
    <edge id=":130_1" function="internal">
        <lane id=":130_1_0" index="0" disallow="pedestrian" speed="13.89" length="23.00" width="3.50" shape="369.75,638.00 369.75,661.00"/>
        <lane id=":130_1_1" index="1" disallow="pedestrian" speed="13.89" length="23.00" width="3.50" shape="373.25,638.00 373.25,661.00"/>
    </edge>
    <edge id=":130_3" function="internal">
        <lane id=":130_3_0" index="0" disallow="pedestrian" speed="9.73" length="7.65" width="3.50" shape="373.25,638.00 374.08,643.80 375.00,645.33"/>
    </edge>
    <edge id=":130_16" function="internal">
        <lane id=":130_16_0" index="0" disallow="pedestrian" speed="9.73" length="13.72" width="3.50" shape="375.00,645.33 376.56,647.94 380.70,650.42 386.50,651.25"/>
    </edge>
    <edge id=":130_4" function="internal">
        <lane id=":130_4_0" index="0" disallow="pedestrian" speed="6.87" length="10.08" width="3.50" shape="386.50,644.25 383.77,643.86 381.81,642.69 380.64,640.73 380.25,638.00"/>
    </edge>
    <edge id=":130_5" function="internal">
        <lane id=":130_5_0" index="0" disallow="pedestrian" speed="13.89" length="23.00" width="3.50" shape="386.50,644.25 363.50,644.25"/>
        <lane id=":130_5_1" index="1" disallow="pedestrian" speed="13.89" length="23.00" width="3.50" shape="386.50,647.75 363.50,647.75"/>
    </edge>
    <edge id=":130_7" function="internal">
        <lane id=":130_7_0" index="0" disallow="pedestrian" speed="9.73" length="7.65" width="3.50" shape="386.50,647.75 380.70,648.58 379.17,649.50"/>
    </edge>
    <edge id=":130_17" function="internal">
        <lane id=":130_17_0" index="0" disallow="pedestrian" speed="9.73" length="13.72" width="3.50" shape="379.17,649.50 376.56,651.06 374.08,655.20 373.25,661.00"/>
    </edge>
    <edge id=":130_8" function="internal">
        <lane id=":130_8_0" index="0" disallow="pedestrian" speed="6.87" length="10.08" width="3.50" shape="380.25,661.00 380.64,658.27 381.81,656.31 383.77,655.14 386.50,654.75"/>
    </edge>
    <edge id=":130_9" function="internal">
        <lane id=":130_9_0" index="0" disallow="pedestrian" speed="13.89" length="23.00" width="3.50" shape="380.25,661.00 380.25,638.00"/>
        <lane id=":130_9_1" index="1" disallow="pedestrian" speed="13.89" length="23.00" width="3.50" shape="376.75,661.00 376.75,638.00"/>
    </edge>
    <edge id=":130_11" function="internal">
        <lane id=":130_11_0" index="0" disallow="pedestrian" speed="9.73" length="7.65" width="3.50" shape="376.75,661.00 375.92,655.20 375.00,653.67"/>
    </edge>
    <edge id=":130_18" function="internal">
        <lane id=":130_18_0" index="0" disallow="pedestrian" speed="9.73" length="13.72" width="3.50" shape="375.00,653.67 373.44,651.06 369.30,648.58 363.50,647.75"/>
    </edge>
    <edge id=":130_12" function="internal">
        <lane id=":130_12_0" index="0" disallow="pedestrian" speed="6.87" length="10.08" width="3.50" shape="363.50,654.75 366.23,655.14 368.19,656.31 369.36,658.27 369.75,661.00"/>
    </edge>
    <edge id=":130_13" function="internal">
        <lane id=":130_13_0" index="0" disallow="pedestrian" speed="13.89" length="23.00" width="3.50" shape="363.50,654.75 386.50,654.75"/>
        <lane id=":130_13_1" index="1" disallow="pedestrian" speed="13.89" length="23.00" width="3.50" shape="363.50,651.25 386.50,651.25"/>
    </edge>
    <edge id=":130_15" function="internal">
        <lane id=":130_15_0" index="0" disallow="pedestrian" speed="9.73" length="7.65" width="3.50" shape="363.50,651.25 369.30,650.42 370.83,649.50"/>
    </edge>
    <edge id=":130_19" function="internal">
        <lane id=":130_19_0" index="0" disallow="pedestrian" speed="9.73" length="13.72" width="3.50" shape="370.83,649.50 373.44,647.94 375.92,643.80 376.75,638.00"/>
    </edge>
    <edge id=":140_0" function="internal">
        <lane id=":140_0_0" index="0" disallow="pedestrian" speed="6.87" length="10.08" width="3.50" shape="-380.25,205.00 -380.64,207.73 -381.81,209.69 -383.77,210.86 -386.50,211.25"/>
    </edge>
    <edge id=":140_1" function="internal">
        <lane id=":140_1_0" index="0" disallow="pedestrian" speed="13.89" length="23.00" width="3.50" shape="-380.25,205.00 -380.25,228.00"/>
        <lane id=":140_1_1" index="1" disallow="pedestrian" speed="13.89" length="23.00" width="3.50" shape="-376.75,205.00 -376.75,228.00"/>
    </edge>
    <edge id=":140_3" function="internal">
        <lane id=":140_3_0" index="0" disallow="pedestrian" speed="9.73" length="7.65" width="3.50" shape="-376.75,205.00 -375.92,210.80 -375.00,212.33"/>
    </edge>
    <edge id=":140_16" function="internal">
        <lane id=":140_16_0" index="0" disallow="pedestrian" speed="9.73" length="13.72" width="3.50" shape="-375.00,212.33 -373.44,214.94 -369.30,217.42 -363.50,218.25"/>
    </edge>
    <edge id=":140_4" function="internal">
        <lane id=":140_4_0" index="0" disallow="pedestrian" speed="6.87" length="10.08" width="3.50" shape="-363.50,211.25 -366.23,210.86 -368.19,209.69 -369.36,207.73 -369.75,205.00"/>
    </edge>
    <edge id=":140_5" function="internal">
        <lane id=":140_5_0" index="0" disallow="pedestrian" speed="13.89" length="23.00" width="3.50" shape="-363.50,211.25 -386.50,211.25"/>
        <lane id=":140_5_1" index="1" disallow="pedestrian" speed="13.89" length="23.00" width="3.50" shape="-363.50,214.75 -386.50,214.75"/>
    </edge>
    <edge id=":140_7" function="internal">
        <lane id=":140_7_0" index="0" disallow="pedestrian" speed="9.73" length="7.65" width="3.50" shape="-363.50,214.75 -369.30,215.58 -370.83,216.50"/>
    </edge>
    <edge id=":140_17" function="internal">
        <lane id=":140_17_0" index="0" disallow="pedestrian" speed="9.73" length="13.72" width="3.50" shape="-370.83,216.50 -373.44,218.06 -375.92,222.20 -376.75,228.00"/>
    </edge>
    <edge id=":140_8" function="internal">
        <lane id=":140_8_0" index="0" disallow="pedestrian" speed="6.87" length="10.08" width="3.50" shape="-369.75,228.00 -369.36,225.27 -368.19,223.31 -366.23,222.14 -363.50,221.75"/>
    </edge>
    <edge id=":140_9" function="internal">
        <lane id=":140_9_0" index="0" disallow="pedestrian" speed="13.89" length="23.00" width="3.50" shape="-369.75,228.00 -369.75,205.00"/>
        <lane id=":140_9_1" index="1" disallow="pedestrian" speed="13.89" length="23.00" width="3.50" shape="-373.25,228.00 -373.25,205.00"/>
    </edge>
    <edge id=":140_11" function="internal">
        <lane id=":140_11_0" index="0" disallow="pedestrian" speed="9.73" length="7.65" width="3.50" shape="-373.25,228.00 -374.08,222.20 -375.00,220.67"/>
    </edge>
    <edge id=":140_18" function="internal">
        <lane id=":140_18_0" index="0" disallow="pedestrian" speed="9.73" length="13.72" width="3.50" shape="-375.00,220.67 -376.56,218.06 -380.70,215.58 -386.50,214.75"/>
    </edge>
    <edge id=":140_12" function="internal">
        <lane id=":140_12_0" index="0" disallow="pedestrian" speed="6.87" length="10.08" width="3.50" shape="-386.50,221.75 -383.77,222.14 -381.81,223.31 -380.64,225.27 -380.25,228.00"/>
    </edge>
    <edge id=":140_13" function="internal">
        <lane id=":140_13_0" index="0" disallow="pedestrian" speed="13.89" length="23.00" width="3.50" shape="-386.50,221.75 -363.50,221.75"/>
        <lane id=":140_13_1" index="1" disallow="pedestrian" speed="13.89" length="23.00" width="3.50" shape="-386.50,218.25 -363.50,218.25"/>
    </edge>
    <edge id=":140_15" function="internal">
        <lane id=":140_15_0" index="0" disallow="pedestrian" speed="9.73" length="7.65" width="3.50" shape="-386.50,218.25 -380.70,217.42 -379.17,216.50"/>
    </edge>
    <edge id=":140_19" function="internal">
        <lane id=":140_19_0" index="0" disallow="pedestrian" speed="9.73" length="13.72" width="3.50" shape="-379.17,216.50 -376.56,214.94 -374.08,210.80 -373.25,205.00"/>
    </edge>
    <edge id=":150_0" function="internal">
        <lane id=":150_0_0" index="0" disallow="pedestrian" speed="6.87" length="10.08" width="3.50" shape="-130.25,205.00 -130.64,207.73 -131.81,209.69 -133.77,210.86 -136.50,211.25"/>
    </edge>
    <edge id=":150_1" function="internal">
        <lane id=":150_1_0" index="0" disallow="pedestrian" speed="13.89" length="23.00" width="3.50" shape="-130.25,205.00 -130.25,228.00"/>
        <lane id=":150_1_1" index="1" disallow="pedestrian" speed="13.89" length="23.00" width="3.50" shape="-126.75,205.00 -126.75,228.00"/>
    </edge>
    <edge id=":150_3" function="internal">
        <lane id=":150_3_0" index="0" disallow="pedestrian" speed="9.73" length="7.65" width="3.50" shape="-126.75,205.00 -125.92,210.80 -125.00,212.33"/>
    </edge>
    <edge id=":150_16" function="internal">
        <lane id=":150_16_0" index="0" disallow="pedestrian" speed="9.73" length="13.72" width="3.50" shape="-125.00,212.33 -123.44,214.94 -119.30,217.42 -113.50,218.25"/>
    </edge>
    <edge id=":150_4" function="internal">
        <lane id=":150_4_0" index="0" disallow="pedestrian" speed="6.87" length="10.08" width="3.50" shape="-113.50,211.25 -116.23,210.86 -118.19,209.69 -119.36,207.73 -119.75,205.00"/>
    </edge>
    <edge id=":150_5" function="internal">
        <lane id=":150_5_0" index="0" disallow="pedestrian" speed="13.89" length="23.00" width="3.50" shape="-113.50,211.25 -136.50,211.25"/>
        <lane id=":150_5_1" index="1" disallow="pedestrian" speed="13.89" length="23.00" width="3.50" shape="-113.50,214.75 -136.50,214.75"/>
    </edge>
    <edge id=":150_7" function="internal">
        <lane id=":150_7_0" index="0" disallow="pedestrian" speed="9.73" length="7.65" width="3.50" shape="-113.50,214.75 -119.30,215.58 -120.83,216.50"/>
    </edge>
    <edge id=":150_17" function="internal">
        <lane id=":150_17_0" index="0" disallow="pedestrian" speed="9.73" length="13.72" width="3.50" shape="-120.83,216.50 -123.44,218.06 -125.92,222.20 -126.75,228.00"/>
    </edge>
    <edge id=":150_8" function="internal">
        <lane id=":150_8_0" index="0" disallow="pedestrian" speed="6.87" length="10.08" width="3.50" shape="-119.75,228.00 -119.36,225.27 -118.19,223.31 -116.23,222.14 -113.50,221.75"/>
    </edge>
    <edge id=":150_9" function="internal">
        <lane id=":150_9_0" index="0" disallow="pedestrian" speed="13.89" length="23.00" width="3.50" shape="-119.75,228.00 -119.75,205.00"/>
        <lane id=":150_9_1" index="1" disallow="pedestrian" speed="13.89" length="23.00" width="3.50" shape="-123.25,228.00 -123.25,205.00"/>
    </edge>
    <edge id=":150_11" function="internal">
        <lane id=":150_11_0" index="0" disallow="pedestrian" speed="9.73" length="7.65" width="3.50" shape="-123.25,228.00 -124.08,222.20 -125.00,220.67"/>
    </edge>
    <edge id=":150_18" function="internal">
        <lane id=":150_18_0" index="0" disallow="pedestrian" speed="9.73" length="13.72" width="3.50" shape="-125.00,220.67 -126.56,218.06 -130.70,215.58 -136.50,214.75"/>
    </edge>
    <edge id=":150_12" function="internal">
        <lane id=":150_12_0" index="0" disallow="pedestrian" speed="6.87" length="10.08" width="3.50" shape="-136.50,221.75 -133.77,222.14 -131.81,223.31 -130.64,225.27 -130.25,228.00"/>
    </edge>
    <edge id=":150_13" function="internal">
        <lane id=":150_13_0" index="0" disallow="pedestrian" speed="13.89" length="23.00" width="3.50" shape="-136.50,221.75 -113.50,221.75"/>
        <lane id=":150_13_1" index="1" disallow="pedestrian" speed="13.89" length="23.00" width="3.50" shape="-136.50,218.25 -113.50,218.25"/>
    </edge>
    <edge id=":150_15" function="internal">
        <lane id=":150_15_0" index="0" disallow="pedestrian" speed="9.73" length="7.65" width="3.50" shape="-136.50,218.25 -130.70,217.42 -129.17,216.50"/>
    </edge>
    <edge id=":150_19" function="internal">
        <lane id=":150_19_0" index="0" disallow="pedestrian" speed="9.73" length="13.72" width="3.50" shape="-129.17,216.50 -126.56,214.94 -124.08,210.80 -123.25,205.00"/>
    </edge>
    <edge id=":160_0" function="internal">
        <lane id=":160_0_0" index="0" disallow="pedestrian" speed="6.87" length="10.08" width="3.50" shape="119.75,205.00 119.36,207.73 118.19,209.69 116.23,210.86 113.50,211.25"/>
    </edge>
    <edge id=":160_1" function="internal">
        <lane id=":160_1_0" index="0" disallow="pedestrian" speed="13.89" length="23.00" width="3.50" shape="119.75,205.00 119.75,228.00"/>
        <lane id=":160_1_1" index="1" disallow="pedestrian" speed="13.89" length="23.00" width="3.50" shape="123.25,205.00 123.25,228.00"/>
    </edge>
    <edge id=":160_3" function="internal">
        <lane id=":160_3_0" index="0" disallow="pedestrian" speed="9.73" length="7.65" width="3.50" shape="123.25,205.00 124.08,210.80 125.00,212.33"/>
    </edge>
    <edge id=":160_16" function="internal">
        <lane id=":160_16_0" index="0" disallow="pedestrian" speed="9.73" length="13.72" width="3.50" shape="125.00,212.33 126.56,214.94 130.70,217.42 136.50,218.25"/>
    </edge>
    <edge id=":160_4" function="internal">
        <lane id=":160_4_0" index="0" disallow="pedestrian" speed="6.87" length="10.08" width="3.50" shape="136.50,211.25 133.77,210.86 131.81,209.69 130.64,207.73 130.25,205.00"/>
    </edge>
    <edge id=":160_5" function="internal">
        <lane id=":160_5_0" index="0" disallow="pedestrian" speed="13.89" length="23.00" width="3.50" shape="136.50,211.25 113.50,211.25"/>
        <lane id=":160_5_1" index="1" disallow="pedestrian" speed="13.89" length="23.00" width="3.50" shape="136.50,214.75 113.50,214.75"/>
    </edge>
    <edge id=":160_7" function="internal">
        <lane id=":160_7_0" index="0" disallow="pedestrian" speed="9.73" length="7.65" width="3.50" shape="136.50,214.75 130.70,215.58 129.17,216.50"/>
    </edge>
    <edge id=":160_17" function="internal">
        <lane id=":160_17_0" index="0" disallow="pedestrian" speed="9.73" length="13.72" width="3.50" shape="129.17,216.50 126.56,218.06 124.08,222.20 123.25,228.00"/>
    </edge>
    <edge id=":160_8" function="internal">
        <lane id=":160_8_0" index="0" disallow="pedestrian" speed="6.87" length="10.08" width="3.50" shape="130.25,228.00 130.64,225.27 131.81,223.31 133.77,222.14 136.50,221.75"/>
    </edge>
    <edge id=":160_9" function="internal">
        <lane id=":160_9_0" index="0" disallow="pedestrian" speed="13.89" length="23.00" width="3.50" shape="130.25,228.00 130.25,205.00"/>
        <lane id=":160_9_1" index="1" disallow="pedestrian" speed="13.89" length="23.00" width="3.50" shape="126.75,228.00 126.75,205.00"/>
    </edge>
    <edge id=":160_11" function="internal">
        <lane id=":160_11_0" index="0" disallow="pedestrian" speed="9.73" length="7.65" width="3.50" shape="126.75,228.00 125.92,222.20 125.00,220.67"/>
    </edge>
    <edge id=":160_18" function="internal">
        <lane id=":160_18_0" index="0" disallow="pedestrian" speed="9.73" length="13.72" width="3.50" shape="125.00,220.67 123.44,218.06 119.30,215.58 113.50,214.75"/>
    </edge>
    <edge id=":160_12" function="internal">
        <lane id=":160_12_0" index="0" disallow="pedestrian" speed="6.87" length="10.08" width="3.50" shape="113.50,221.75 116.23,222.14 118.19,223.31 119.36,225.27 119.75,228.00"/>
    </edge>
    <edge id=":160_13" function="internal">
        <lane id=":160_13_0" index="0" disallow="pedestrian" speed="13.89" length="23.00" width="3.50" shape="113.50,221.75 136.50,221.75"/>
        <lane id=":160_13_1" index="1" disallow="pedestrian" speed="13.89" length="23.00" width="3.50" shape="113.50,218.25 136.50,218.25"/>
    </edge>
    <edge id=":160_15" function="internal">
        <lane id=":160_15_0" index="0" disallow="pedestrian" speed="9.73" length="7.65" width="3.50" shape="113.50,218.25 119.30,217.42 120.83,216.50"/>
    </edge>
    <edge id=":160_19" function="internal">
        <lane id=":160_19_0" index="0" disallow="pedestrian" speed="9.73" length="13.72" width="3.50" shape="120.83,216.50 123.44,214.94 125.92,210.80 126.75,205.00"/>
    </edge>
    <edge id=":170_0" function="internal">
        <lane id=":170_0_0" index="0" disallow="pedestrian" speed="6.87" length="10.08" width="3.50" shape="369.75,205.00 369.36,207.73 368.19,209.69 366.23,210.86 363.50,211.25"/>
    </edge>
    <edge id=":170_1" function="internal">